data/nesta_case24_ieee_rts.m
%%%%%%%%%%%%%%%%%%%%%%%%%%%%%%%%%%%%%%%%%%%%%%%%%%%%%%%%%%%%%%%%%%%%%%%%%%%
%%%%                                                                  %%%%%
%%%%      NICTA Energy System Test Case Archive (NESTA) - v0.6.0      %%%%%
%%%%              Optimal Power Flow - Typical Operation              %%%%%
%%%%                       02 - January - 2016                        %%%%%
%%%%                                                                  %%%%%
%%%%%%%%%%%%%%%%%%%%%%%%%%%%%%%%%%%%%%%%%%%%%%%%%%%%%%%%%%%%%%%%%%%%%%%%%%%
%
%   Power flow data for the IEEE RELIABILITY TEST SYSTEM 1979.
%
%   IEEE Reliability Test System Task Force of the Applications of
%   Probability Methods Subcommittee, "IEEE reliability test system,"
%   IEEE Transactions on Power Apparatus and Systems, Vol. 98, No. 6,
%   Nov./Dec. 1979, pp. 2047-2054.
%
%   Cost data is from Web site run by Georgia Tech Power Systems Control
%   and Automation Laboratory:
%       http://pscal.ece.gatech.edu/testsys/index.html
%
%   Matpower case file data provided by Bruce Wollenberg.
%
function mpc = nesta_case24_ieee_rts
mpc.version = '2';
mpc.baseMVA = 100.0;

%% area data
%	area	refbus
mpc.areas = [
	1	 1;
	2	 3;
	3	 8;
	4	 6;
];

%% bus data
%	bus_i	type	Pd	Qd	Gs	Bs	area	Vm	Va	baseKV	zone	Vmax	Vmin
mpc.bus = [
	1	 2	 108.0	 22.0	 0.0	 0.0	 1	    1.04723	   -6.75546	 138.0	 1	    1.05000	    0.95000;
	2	 2	 97.0	 20.0	 0.0	 0.0	 1	    1.04721	   -6.83109	 138.0	 1	    1.05000	    0.95000;
	3	 1	 180.0	 37.0	 0.0	 0.0	 1	    1.01378	   -6.18749	 138.0	 1	    1.05000	    0.95000;
	4	 1	 74.0	 15.0	 0.0	 0.0	 1	    1.01625	   -9.57435	 138.0	 1	    1.05000	    0.95000;
	5	 1	 71.0	 14.0	 0.0	 0.0	 1	    1.03543	   -9.73753	 138.0	 1	    1.05000	    0.95000;
	6	 1	 136.0	 28.0	 0.0	 -100.0	 2	    1.03241	  -12.31057	 138.0	 1	    1.05000	    0.95000;
	7	 2	 125.0	 25.0	 0.0	 0.0	 2	    1.03601	   -9.87659	 138.0	 1	    1.05000	    0.95000;
	8	 1	 171.0	 35.0	 0.0	 0.0	 2	    1.00896	  -12.55316	 138.0	 1	    1.05000	    0.95000;
	9	 1	 175.0	 36.0	 0.0	 0.0	 1	    1.02393	   -7.81824	 138.0	 1	    1.05000	    0.95000;
	10	 1	 195.0	 40.0	 0.0	 0.0	 2	    1.05000	   -9.67835	 138.0	 1	    1.05000	    0.95000;
	11	 1	 0.0	 0.0	 0.0	 0.0	 3	    1.02263	   -2.61309	 230.0	 1	    1.05000	    0.95000;
	12	 1	 0.0	 0.0	 0.0	 0.0	 3	    1.01727	   -1.87609	 230.0	 1	    1.05000	    0.95000;
	13	 3	 265.0	 54.0	 0.0	 0.0	 3	    1.03348	   -0.00000	 230.0	 1	    1.05000	    0.95000;
	14	 2	 194.0	 39.0	 0.0	 0.0	 3	    1.03987	    1.01242	 230.0	 1	    1.05000	    0.95000;
	15	 2	 317.0	 64.0	 0.0	 0.0	 4	    1.04106	    9.32437	 230.0	 1	    1.05000	    0.95000;
	16	 2	 100.0	 20.0	 0.0	 0.0	 4	    1.04428	    8.54257	 230.0	 1	    1.05000	    0.95000;
	17	 1	 0.0	 0.0	 0.0	 0.0	 4	    1.04756	   12.89161	 230.0	 1	    1.05000	    0.95000;
	18	 2	 333.0	 68.0	 0.0	 0.0	 4	    1.05000	   14.24705	 230.0	 1	    1.05000	    0.95000;
	19	 1	 181.0	 37.0	 0.0	 0.0	 3	    1.03895	    7.49314	 230.0	 1	    1.05000	    0.95000;
	20	 1	 128.0	 26.0	 0.0	 0.0	 3	    1.04397	    8.45227	 230.0	 1	    1.05000	    0.95000;
	21	 2	 0.0	 0.0	 0.0	 0.0	 4	    1.05000	   15.02295	 230.0	 1	    1.05000	    0.95000;
	22	 2	 0.0	 0.0	 0.0	 0.0	 4	    1.05000	   20.69117	 230.0	 1	    1.05000	    0.95000;
	23	 2	 0.0	 0.0	 0.0	 0.0	 3	    1.05000	    9.68379	 230.0	 1	    1.05000	    0.95000;
	24	 1	 0.0	 0.0	 0.0	 0.0	 4	    1.00585	    3.66830	 230.0	 1	    1.05000	    0.95000;
];

%% generator data
%	bus	Pg	Qg	Qmax	Qmin	Vg	mBase	status	Pmax	Pmin	Pc1	Pc2	Qc1min	Qc1max	Qc2min	Qc2max	ramp_agc	ramp_10	ramp_30	ramp_q	apf
mpc.gen = [
	1	 16.0	 4.862	 10.0	 0.0	 1.04723	 100.0	 1	 20.0	 16.0	 0.0	 0.0	 0.0	 0.0	 0.0	 0.0	 0.0	 0.0	 0.0	 0.0	 0.0;
	1	 16.0	 4.862	 10.0	 0.0	 1.04723	 100.0	 1	 20.0	 16.0	 0.0	 0.0	 0.0	 0.0	 0.0	 0.0	 0.0	 0.0	 0.0	 0.0	 0.0;
	1	 76.0	 -1.576	 30.0	 -25.0	 1.04723	 100.0	 1	 76.0	 15.2	 0.0	 0.0	 0.0	 0.0	 0.0	 0.0	 0.0	 0.0	 0.0	 0.0	 0.0;
	1	 76.0	 -1.576	 30.0	 -25.0	 1.04723	 100.0	 1	 76.0	 15.2	 0.0	 0.0	 0.0	 0.0	 0.0	 0.0	 0.0	 0.0	 0.0	 0.0	 0.0;
	2	 16.0	 4.814	 10.0	 0.0	 1.04721	 100.0	 1	 20.0	 16.0	 0.0	 0.0	 0.0	 0.0	 0.0	 0.0	 0.0	 0.0	 0.0	 0.0	 0.0;
	2	 16.0	 4.814	 10.0	 0.0	 1.04721	 100.0	 1	 20.0	 16.0	 0.0	 0.0	 0.0	 0.0	 0.0	 0.0	 0.0	 0.0	 0.0	 0.0	 0.0;
	2	 76.0	 -2.923	 30.0	 -25.0	 1.04721	 100.0	 1	 76.0	 15.2	 0.0	 0.0	 0.0	 0.0	 0.0	 0.0	 0.0	 0.0	 0.0	 0.0	 0.0;
	2	 76.0	 -2.923	 30.0	 -25.0	 1.04721	 100.0	 1	 76.0	 15.2	 0.0	 0.0	 0.0	 0.0	 0.0	 0.0	 0.0	 0.0	 0.0	 0.0	 0.0;
	7	 70.343	 16.438	 60.0	 0.0	 1.03601	 100.0	 1	 100.0	 25.0	 0.0	 0.0	 0.0	 0.0	 0.0	 0.0	 0.0	 0.0	 0.0	 0.0	 0.0;
	7	 70.343	 16.438	 60.0	 0.0	 1.03601	 100.0	 1	 100.0	 25.0	 0.0	 0.0	 0.0	 0.0	 0.0	 0.0	 0.0	 0.0	 0.0	 0.0	 0.0;
	7	 70.343	 16.438	 60.0	 0.0	 1.03601	 100.0	 1	 100.0	 25.0	 0.0	 0.0	 0.0	 0.0	 0.0	 0.0	 0.0	 0.0	 0.0	 0.0	 0.0;
	13	 78.579	 32.592	 80.0	 0.0	 1.03348	 100.0	 1	 197.0	 69.0	 0.0	 0.0	 0.0	 0.0	 0.0	 0.0	 0.0	 0.0	 0.0	 0.0	 0.0;
	13	 78.579	 32.592	 80.0	 0.0	 1.03348	 100.0	 1	 197.0	 69.0	 0.0	 0.0	 0.0	 0.0	 0.0	 0.0	 0.0	 0.0	 0.0	 0.0	 0.0;
	13	 78.579	 32.592	 80.0	 0.0	 1.03348	 100.0	 1	 197.0	 69.0	 0.0	 0.0	 0.0	 0.0	 0.0	 0.0	 0.0	 0.0	 0.0	 0.0	 0.0;
	14	 0.0	 114.908	 200.0	 -50.0	 1.03987	 100.0	 1	 0.0	 0.0	 0.0	 0.0	 0.0	 0.0	 0.0	 0.0	 0.0	 0.0	 0.0	 0.0	 0.0;
	15	 2.4	 6.0	 6.0	 0.0	 1.04106	 100.0	 1	 12.0	 2.4	 0.0	 0.0	 0.0	 0.0	 0.0	 0.0	 0.0	 0.0	 0.0	 0.0	 0.0;
	15	 2.4	 6.0	 6.0	 0.0	 1.04106	 100.0	 1	 12.0	 2.4	 0.0	 0.0	 0.0	 0.0	 0.0	 0.0	 0.0	 0.0	 0.0	 0.0	 0.0;
	15	 2.4	 6.0	 6.0	 0.0	 1.04106	 100.0	 1	 12.0	 2.4	 0.0	 0.0	 0.0	 0.0	 0.0	 0.0	 0.0	 0.0	 0.0	 0.0	 0.0;
	15	 2.4	 6.0	 6.0	 0.0	 1.04106	 100.0	 1	 12.0	 2.4	 0.0	 0.0	 0.0	 0.0	 0.0	 0.0	 0.0	 0.0	 0.0	 0.0	 0.0;
	15	 2.4	 6.0	 6.0	 0.0	 1.04106	 100.0	 1	 12.0	 2.4	 0.0	 0.0	 0.0	 0.0	 0.0	 0.0	 0.0	 0.0	 0.0	 0.0	 0.0;
	15	 155.0	 80.0	 80.0	 -50.0	 1.04106	 100.0	 1	 155.0	 54.3	 0.0	 0.0	 0.0	 0.0	 0.0	 0.0	 0.0	 0.0	 0.0	 0.0	 0.0;
	16	 155.0	 80.0	 80.0	 -50.0	 1.04428	 100.0	 1	 155.0	 54.3	 0.0	 0.0	 0.0	 0.0	 0.0	 0.0	 0.0	 0.0	 0.0	 0.0	 0.0;
	18	 400.0	 72.898	 200.0	 -50.0	 1.05	 100.0	 1	 400.0	 100.0	 0.0	 0.0	 0.0	 0.0	 0.0	 0.0	 0.0	 0.0	 0.0	 0.0	 0.0;
	21	 400.0	 -7.458	 200.0	 -50.0	 1.05	 100.0	 1	 400.0	 100.0	 0.0	 0.0	 0.0	 0.0	 0.0	 0.0	 0.0	 0.0	 0.0	 0.0	 0.0;
	22	 50.0	 -6.413	 16.0	 -10.0	 1.05	 100.0	 1	 50.0	 10.0	 0.0	 0.0	 0.0	 0.0	 0.0	 0.0	 0.0	 0.0	 0.0	 0.0	 0.0;
	22	 50.0	 -6.413	 16.0	 -10.0	 1.05	 100.0	 1	 50.0	 10.0	 0.0	 0.0	 0.0	 0.0	 0.0	 0.0	 0.0	 0.0	 0.0	 0.0	 0.0;
	22	 50.0	 -6.413	 16.0	 -10.0	 1.05	 100.0	 1	 50.0	 10.0	 0.0	 0.0	 0.0	 0.0	 0.0	 0.0	 0.0	 0.0	 0.0	 0.0	 0.0;
	22	 50.0	 -6.413	 16.0	 -10.0	 1.05	 100.0	 1	 50.0	 10.0	 0.0	 0.0	 0.0	 0.0	 0.0	 0.0	 0.0	 0.0	 0.0	 0.0	 0.0;
	22	 50.0	 -6.413	 16.0	 -10.0	 1.05	 100.0	 1	 50.0	 10.0	 0.0	 0.0	 0.0	 0.0	 0.0	 0.0	 0.0	 0.0	 0.0	 0.0	 0.0;
	22	 50.0	 -6.413	 16.0	 -10.0	 1.05	 100.0	 1	 50.0	 10.0	 0.0	 0.0	 0.0	 0.0	 0.0	 0.0	 0.0	 0.0	 0.0	 0.0	 0.0;
	23	 155.0	 2.548	 80.0	 -50.0	 1.05	 100.0	 1	 155.0	 54.3	 0.0	 0.0	 0.0	 0.0	 0.0	 0.0	 0.0	 0.0	 0.0	 0.0	 0.0;
	23	 155.0	 2.548	 80.0	 -50.0	 1.05	 100.0	 1	 155.0	 54.3	 0.0	 0.0	 0.0	 0.0	 0.0	 0.0	 0.0	 0.0	 0.0	 0.0	 0.0;
	23	 350.0	 40.548	 150.0	 -25.0	 1.05	 100.0	 1	 350.0	 140.0	 0.0	 0.0	 0.0	 0.0	 0.0	 0.0	 0.0	 0.0	 0.0	 0.0	 0.0;
];

%% generator cost data
%	2	startup	shutdown	n	c(n-1)	...	c0
mpc.gencost = [
	2	 1500.0	 0.0	 3	   0.000000	 130.000000	 400.684900;
	2	 1500.0	 0.0	 3	   0.000000	 130.000000	 400.684900;
	2	 1500.0	 0.0	 3	   0.014142	  16.081100	 212.307600;
	2	 1500.0	 0.0	 3	   0.014142	  16.081100	 212.307600;
	2	 1500.0	 0.0	 3	   0.000000	 130.000000	 400.684900;
	2	 1500.0	 0.0	 3	   0.000000	 130.000000	 400.684900;
	2	 1500.0	 0.0	 3	   0.014142	  16.081100	 212.307600;
	2	 1500.0	 0.0	 3	   0.014142	  16.081100	 212.307600;
	2	 1500.0	 0.0	 3	   0.052672	  43.661500	 781.521000;
	2	 1500.0	 0.0	 3	   0.052672	  43.661500	 781.521000;
	2	 1500.0	 0.0	 3	   0.052672	  43.661500	 781.521000;
	2	 1500.0	 0.0	 3	   0.007170	  48.580400	 832.757500;
	2	 1500.0	 0.0	 3	   0.007170	  48.580400	 832.757500;
	2	 1500.0	 0.0	 3	   0.007170	  48.580400	 832.757500;
	2	 1500.0	 0.0	 3	   0.000000	   0.000000	   0.000000;
	2	 1500.0	 0.0	 3	   0.328412	  56.564000	  86.385200;
	2	 1500.0	 0.0	 3	   0.328412	  56.564000	  86.385200;
	2	 1500.0	 0.0	 3	   0.328412	  56.564000	  86.385200;
	2	 1500.0	 0.0	 3	   0.328412	  56.564000	  86.385200;
	2	 1500.0	 0.0	 3	   0.328412	  56.564000	  86.385200;
	2	 1500.0	 0.0	 3	   0.008342	  12.388300	 382.239100;
	2	 1500.0	 0.0	 3	   0.008342	  12.388300	 382.239100;
	2	 1500.0	 0.0	 3	   0.000213	   4.423100	 395.374900;
	2	 1500.0	 0.0	 3	   0.000213	   4.423100	 395.374900;
	2	 1500.0	 0.0	 3	   0.000000	   0.001000	   0.001000;
	2	 1500.0	 0.0	 3	   0.000000	   0.001000	   0.001000;
	2	 1500.0	 0.0	 3	   0.000000	   0.001000	   0.001000;
	2	 1500.0	 0.0	 3	   0.000000	   0.001000	   0.001000;
	2	 1500.0	 0.0	 3	   0.000000	   0.001000	   0.001000;
	2	 1500.0	 0.0	 3	   0.000000	   0.001000	   0.001000;
	2	 1500.0	 0.0	 3	   0.008342	  12.388300	 382.239100;
	2	 1500.0	 0.0	 3	   0.008342	  12.388300	 382.239100;
	2	 1500.0	 0.0	 3	   0.004895	  11.849500	 665.109400;
];

%% branch data
%	fbus	tbus	r	x	b	rateA	rateB	rateC	ratio	angle	status	angmin	angmax
mpc.branch = [
	1	 2	 0.0026	 0.0139	 0.4611	 175.0	 193.0	 200.0	 0.0	 0.0	 1	 -30.0	 30.0;
	1	 3	 0.0546	 0.2112	 0.0572	 175.0	 208.0	 220.0	 0.0	 0.0	 1	 -30.0	 30.0;
	1	 5	 0.0218	 0.0845	 0.0229	 175.0	 208.0	 220.0	 0.0	 0.0	 1	 -30.0	 30.0;
	2	 4	 0.0328	 0.1267	 0.0343	 175.0	 208.0	 220.0	 0.0	 0.0	 1	 -30.0	 30.0;
	2	 6	 0.0497	 0.192	 0.052	 175.0	 208.0	 220.0	 0.0	 0.0	 1	 -30.0	 30.0;
	3	 9	 0.0308	 0.119	 0.0322	 175.0	 208.0	 220.0	 0.0	 0.0	 1	 -30.0	 30.0;
	3	 24	 0.0023	 0.0839	 0.0	 400.0	 510.0	 600.0	 1.03	 0.0	 1	 -30.0	 30.0;
	4	 9	 0.0268	 0.1037	 0.0281	 175.0	 208.0	 220.0	 0.0	 0.0	 1	 -30.0	 30.0;
	5	 10	 0.0228	 0.0883	 0.0239	 175.0	 208.0	 220.0	 0.0	 0.0	 1	 -30.0	 30.0;
	6	 10	 0.0139	 0.0605	 2.459	 175.0	 193.0	 200.0	 0.0	 0.0	 1	 -30.0	 30.0;
	7	 8	 0.0159	 0.0614	 0.0166	 175.0	 208.0	 220.0	 0.0	 0.0	 1	 -30.0	 30.0;
	8	 9	 0.0427	 0.1651	 0.0447	 175.0	 208.0	 220.0	 0.0	 0.0	 1	 -30.0	 30.0;
	8	 10	 0.0427	 0.1651	 0.0447	 175.0	 208.0	 220.0	 0.0	 0.0	 1	 -30.0	 30.0;
	9	 11	 0.0023	 0.0839	 0.0	 400.0	 510.0	 600.0	 1.03	 0.0	 1	 -30.0	 30.0;
	9	 12	 0.0023	 0.0839	 0.0	 400.0	 510.0	 600.0	 1.03	 0.0	 1	 -30.0	 30.0;
	10	 11	 0.0023	 0.0839	 0.0	 400.0	 510.0	 600.0	 1.02	 0.0	 1	 -30.0	 30.0;
	10	 12	 0.0023	 0.0839	 0.0	 400.0	 510.0	 600.0	 1.02	 0.0	 1	 -30.0	 30.0;
	11	 13	 0.0061	 0.0476	 0.0999	 500.0	 600.0	 625.0	 0.0	 0.0	 1	 -30.0	 30.0;
	11	 14	 0.0054	 0.0418	 0.0879	 500.0	 600.0	 625.0	 0.0	 0.0	 1	 -30.0	 30.0;
	12	 13	 0.0061	 0.0476	 0.0999	 500.0	 600.0	 625.0	 0.0	 0.0	 1	 -30.0	 30.0;
	12	 23	 0.0124	 0.0966	 0.203	 500.0	 600.0	 625.0	 0.0	 0.0	 1	 -30.0	 30.0;
	13	 23	 0.0111	 0.0865	 0.1818	 500.0	 600.0	 625.0	 0.0	 0.0	 1	 -30.0	 30.0;
	14	 16	 0.005	 0.0389	 0.0818	 500.0	 600.0	 625.0	 0.0	 0.0	 1	 -30.0	 30.0;
	15	 16	 0.0022	 0.0173	 0.0364	 500.0	 600.0	 625.0	 0.0	 0.0	 1	 -30.0	 30.0;
	15	 21	 0.0063	 0.049	 0.103	 500.0	 600.0	 625.0	 0.0	 0.0	 1	 -30.0	 30.0;
	15	 21	 0.0063	 0.049	 0.103	 500.0	 600.0	 625.0	 0.0	 0.0	 1	 -30.0	 30.0;
	15	 24	 0.0067	 0.0519	 0.1091	 500.0	 600.0	 625.0	 0.0	 0.0	 1	 -30.0	 30.0;
	16	 17	 0.0033	 0.0259	 0.0545	 500.0	 600.0	 625.0	 0.0	 0.0	 1	 -30.0	 30.0;
	16	 19	 0.003	 0.0231	 0.0485	 500.0	 600.0	 625.0	 0.0	 0.0	 1	 -30.0	 30.0;
	17	 18	 0.0018	 0.0144	 0.0303	 500.0	 600.0	 625.0	 0.0	 0.0	 1	 -30.0	 30.0;
	17	 22	 0.0135	 0.1053	 0.2212	 500.0	 600.0	 625.0	 0.0	 0.0	 1	 -30.0	 30.0;
	18	 21	 0.0033	 0.0259	 0.0545	 500.0	 600.0	 625.0	 0.0	 0.0	 1	 -30.0	 30.0;
	18	 21	 0.0033	 0.0259	 0.0545	 500.0	 600.0	 625.0	 0.0	 0.0	 1	 -30.0	 30.0;
	19	 20	 0.0051	 0.0396	 0.0833	 500.0	 600.0	 625.0	 0.0	 0.0	 1	 -30.0	 30.0;
	19	 20	 0.0051	 0.0396	 0.0833	 500.0	 600.0	 625.0	 0.0	 0.0	 1	 -30.0	 30.0;
	20	 23	 0.0028	 0.0216	 0.0455	 500.0	 600.0	 625.0	 0.0	 0.0	 1	 -30.0	 30.0;
	20	 23	 0.0028	 0.0216	 0.0455	 500.0	 600.0	 625.0	 0.0	 0.0	 1	 -30.0	 30.0;
	21	 22	 0.0087	 0.0678	 0.1424	 500.0	 600.0	 625.0	 0.0	 0.0	 1	 -30.0	 30.0;
];

% INFO    : === Translation Options ===
% INFO    : Phase Angle Bound:           30.0 (deg.)
% INFO    : AC OPF Solution File:        nesta_case24_ieee_rts.dat.opf.sol
% INFO    : 
% INFO    : === Voltage Setpoint Replacement Notes ===
% INFO    : Bus 1	: V=1.0, theta=0.0 -> V=1.04723, theta=-6.75546
% INFO    : Bus 2	: V=1.0, theta=0.0 -> V=1.04721, theta=-6.83109
% INFO    : Bus 3	: V=1.0, theta=0.0 -> V=1.01378, theta=-6.18749
% INFO    : Bus 4	: V=1.0, theta=0.0 -> V=1.01625, theta=-9.57435
% INFO    : Bus 5	: V=1.0, theta=0.0 -> V=1.03543, theta=-9.73753
% INFO    : Bus 6	: V=1.0, theta=0.0 -> V=1.03241, theta=-12.31057
% INFO    : Bus 7	: V=1.0, theta=0.0 -> V=1.03601, theta=-9.87659
% INFO    : Bus 8	: V=1.0, theta=0.0 -> V=1.00896, theta=-12.55316
% INFO    : Bus 9	: V=1.0, theta=0.0 -> V=1.02393, theta=-7.81824
% INFO    : Bus 10	: V=1.0, theta=0.0 -> V=1.05, theta=-9.67835
% INFO    : Bus 11	: V=1.0, theta=0.0 -> V=1.02263, theta=-2.61309
% INFO    : Bus 12	: V=1.0, theta=0.0 -> V=1.01727, theta=-1.87609
% INFO    : Bus 13	: V=1.0, theta=0.0 -> V=1.03348, theta=-0.0
% INFO    : Bus 14	: V=1.0, theta=0.0 -> V=1.03987, theta=1.01242
% INFO    : Bus 15	: V=1.0, theta=0.0 -> V=1.04106, theta=9.32437
% INFO    : Bus 16	: V=1.0, theta=0.0 -> V=1.04428, theta=8.54257
% INFO    : Bus 17	: V=1.0, theta=0.0 -> V=1.04756, theta=12.89161
% INFO    : Bus 18	: V=1.0, theta=0.0 -> V=1.05, theta=14.24705
% INFO    : Bus 19	: V=1.0, theta=0.0 -> V=1.03895, theta=7.49314
% INFO    : Bus 20	: V=1.0, theta=0.0 -> V=1.04397, theta=8.45227
% INFO    : Bus 21	: V=1.0, theta=0.0 -> V=1.05, theta=15.02295
% INFO    : Bus 22	: V=1.0, theta=0.0 -> V=1.05, theta=20.69117
% INFO    : Bus 23	: V=1.0, theta=0.0 -> V=1.05, theta=9.68379
% INFO    : Bus 24	: V=1.0, theta=0.0 -> V=1.00585, theta=3.6683
% INFO    : 
% INFO    : === Generator Setpoint Replacement Notes ===
% INFO    : Gen at bus 1	: Pg=10.0, Qg=0.0 -> Pg=16.0, Qg=4.862
% INFO    : Gen at bus 1	: Vg=1.035 -> Vg=1.04723
% INFO    : Gen at bus 1	: Pg=10.0, Qg=0.0 -> Pg=16.0, Qg=4.862
% INFO    : Gen at bus 1	: Vg=1.035 -> Vg=1.04723
% INFO    : Gen at bus 1	: Pg=76.0, Qg=0.0 -> Pg=76.0, Qg=-1.576
% INFO    : Gen at bus 1	: Vg=1.035 -> Vg=1.04723
% INFO    : Gen at bus 1	: Pg=76.0, Qg=0.0 -> Pg=76.0, Qg=-1.576
% INFO    : Gen at bus 1	: Vg=1.035 -> Vg=1.04723
% INFO    : Gen at bus 2	: Pg=10.0, Qg=0.0 -> Pg=16.0, Qg=4.814
% INFO    : Gen at bus 2	: Vg=1.035 -> Vg=1.04721
% INFO    : Gen at bus 2	: Pg=10.0, Qg=0.0 -> Pg=16.0, Qg=4.814
% INFO    : Gen at bus 2	: Vg=1.035 -> Vg=1.04721
% INFO    : Gen at bus 2	: Pg=76.0, Qg=0.0 -> Pg=76.0, Qg=-2.923
% INFO    : Gen at bus 2	: Vg=1.035 -> Vg=1.04721
% INFO    : Gen at bus 2	: Pg=76.0, Qg=0.0 -> Pg=76.0, Qg=-2.923
% INFO    : Gen at bus 2	: Vg=1.035 -> Vg=1.04721
% INFO    : Gen at bus 7	: Pg=80.0, Qg=0.0 -> Pg=70.343, Qg=16.438
% INFO    : Gen at bus 7	: Vg=1.025 -> Vg=1.03601
% INFO    : Gen at bus 7	: Pg=80.0, Qg=0.0 -> Pg=70.343, Qg=16.438
% INFO    : Gen at bus 7	: Vg=1.025 -> Vg=1.03601
% INFO    : Gen at bus 7	: Pg=80.0, Qg=0.0 -> Pg=70.343, Qg=16.438
% INFO    : Gen at bus 7	: Vg=1.025 -> Vg=1.03601
% INFO    : Gen at bus 13	: Pg=95.1, Qg=0.0 -> Pg=78.579, Qg=32.592
% INFO    : Gen at bus 13	: Vg=1.02 -> Vg=1.03348
% INFO    : Gen at bus 13	: Pg=95.1, Qg=0.0 -> Pg=78.579, Qg=32.592
% INFO    : Gen at bus 13	: Vg=1.02 -> Vg=1.03348
% INFO    : Gen at bus 13	: Pg=95.1, Qg=0.0 -> Pg=78.579, Qg=32.592
% INFO    : Gen at bus 13	: Vg=1.02 -> Vg=1.03348
% INFO    : Gen at bus 14	: Pg=0.0, Qg=35.3 -> Pg=0.0, Qg=114.908
% INFO    : Gen at bus 14	: Vg=0.98 -> Vg=1.03987
% INFO    : Gen at bus 15	: Pg=12.0, Qg=0.0 -> Pg=2.4, Qg=6.0
% INFO    : Gen at bus 15	: Vg=1.014 -> Vg=1.04106
% INFO    : Gen at bus 15	: Pg=12.0, Qg=0.0 -> Pg=2.4, Qg=6.0
% INFO    : Gen at bus 15	: Vg=1.014 -> Vg=1.04106
% INFO    : Gen at bus 15	: Pg=12.0, Qg=0.0 -> Pg=2.4, Qg=6.0
% INFO    : Gen at bus 15	: Vg=1.014 -> Vg=1.04106
% INFO    : Gen at bus 15	: Pg=12.0, Qg=0.0 -> Pg=2.4, Qg=6.0
% INFO    : Gen at bus 15	: Vg=1.014 -> Vg=1.04106
% INFO    : Gen at bus 15	: Pg=12.0, Qg=0.0 -> Pg=2.4, Qg=6.0
% INFO    : Gen at bus 15	: Vg=1.014 -> Vg=1.04106
% INFO    : Gen at bus 15	: Pg=155.0, Qg=0.0 -> Pg=155.0, Qg=80.0
% INFO    : Gen at bus 15	: Vg=1.014 -> Vg=1.04106
% INFO    : Gen at bus 16	: Pg=155.0, Qg=0.0 -> Pg=155.0, Qg=80.0
% INFO    : Gen at bus 16	: Vg=1.017 -> Vg=1.04428
% INFO    : Gen at bus 18	: Pg=400.0, Qg=0.0 -> Pg=400.0, Qg=72.898
% INFO    : Gen at bus 18	: Vg=1.05 -> Vg=1.05
% INFO    : Gen at bus 21	: Pg=400.0, Qg=0.0 -> Pg=400.0, Qg=-7.458
% INFO    : Gen at bus 21	: Vg=1.05 -> Vg=1.05
% INFO    : Gen at bus 22	: Pg=50.0, Qg=0.0 -> Pg=50.0, Qg=-6.413
% INFO    : Gen at bus 22	: Vg=1.05 -> Vg=1.05
% INFO    : Gen at bus 22	: Pg=50.0, Qg=0.0 -> Pg=50.0, Qg=-6.413
% INFO    : Gen at bus 22	: Vg=1.05 -> Vg=1.05
% INFO    : Gen at bus 22	: Pg=50.0, Qg=0.0 -> Pg=50.0, Qg=-6.413
% INFO    : Gen at bus 22	: Vg=1.05 -> Vg=1.05
% INFO    : Gen at bus 22	: Pg=50.0, Qg=0.0 -> Pg=50.0, Qg=-6.413
% INFO    : Gen at bus 22	: Vg=1.05 -> Vg=1.05
% INFO    : Gen at bus 22	: Pg=50.0, Qg=0.0 -> Pg=50.0, Qg=-6.413
% INFO    : Gen at bus 22	: Vg=1.05 -> Vg=1.05
% INFO    : Gen at bus 22	: Pg=50.0, Qg=0.0 -> Pg=50.0, Qg=-6.413
% INFO    : Gen at bus 22	: Vg=1.05 -> Vg=1.05
% INFO    : Gen at bus 23	: Pg=155.0, Qg=0.0 -> Pg=155.0, Qg=2.548
% INFO    : Gen at bus 23	: Vg=1.05 -> Vg=1.05
% INFO    : Gen at bus 23	: Pg=155.0, Qg=0.0 -> Pg=155.0, Qg=2.548
% INFO    : Gen at bus 23	: Vg=1.05 -> Vg=1.05
% INFO    : Gen at bus 23	: Pg=350.0, Qg=0.0 -> Pg=350.0, Qg=40.548
% INFO    : Gen at bus 23	: Vg=1.05 -> Vg=1.05
% INFO    : 
% INFO    : === Writing Matpower Case File Notes ===
